case33_1.m
function mpc = case33_1
%% MATPOWER Case Format : Version 2
mpc.version = '2';

%%-----  Power Flow Data  -----%%
%% system MVA base
mpc.baseMVA = 100;

%% bus data
%	bus_i	type	Pd(MW)	Qd	Gs	Bs	area	Vm	Va	baseKV	zone	Vmax	Vmin
mpc.bus = [
	1	3	0.0000	0.0000	0	0	1	1.00	0	12.66	1	1.10	0.90;
	2	1	0.1000	0.0600	0	0	1	1.00	0	12.66	1	1.10	0.90;
	3	1	0.0900	0.0400	0	0	1	1.00	0	12.66	1	1.10	0.90;
	4	1	0.1200	0.0800	0	0	1	1.00	0	12.66	1	1.10	0.90;
	5	1	0.0600	0.0300	0	0	1	1.00	0	12.66	1	1.10	0.90;
	6	1	0.0600	0.0200	0	0	1	1.00	0	12.66	1	1.10	0.90;
	7	1	0.2000	0.1000	0	0	1	1.00	0	12.66	1	1.10	0.90;
	8	1	0.2000	0.1000	0	0	1	1.00	0	12.66	1	1.10	0.90;
	9	1	0.108808123860408	0.0200	0	0	1	1.00	0	12.66	1	1.10	0.90;
	10	1	0.0600	0.0200	0	0	1	1.00	0	12.66	1	1.10	0.90;
	11	1	0.0450	0.0300	0	0	1	1.00	0	12.66	1	1.10	0.90;
	12	1	0.0600	0.0350	0	0	1	1.00	0	12.66	1	1.10	0.90;
	13	1	0.0600	0.0350	0	0	1	1.00	0	12.66	1	1.10	0.90;
	14	1	0.1200	0.0800	0	0	1	1.00	0	12.66	1	1.10	0.90;
	15	1	0.0600	0.0100	0	0	1	1.00	0	12.66	1	1.10	0.90;
    16	1	0.106044556316022	0.0200	0	0	1	1.00	0	12.66	1	1.10	0.90;
	17	1	0.0600	0.0200	0	0	1	1.00	0	12.66	1	1.10	0.90;
	18	1	0.0900	0.0400	0	0	1	1.00	0	12.66	1	1.10	0.90;
    19	1	0.0900	0.0400	0	0	1	1.00	0	12.66	1	1.10	0.90;
	20	1	0.0900	0.0400	0	0	1	1.00	0	12.66	1	1.10	0.90;
	21	1	0.115562648577533	0.0400	0	0	1	1.00	0	12.66	1	1.10	0.90;
	22	1	0.0900	0.0400	0	0	1	1.00	0	12.66	1	1.10	0.90;
	23	1	0.125969293954145	0.0500	0	0	1	1.00	0	12.66	1	1.10	0.90;
	24	1	0.4200	0.2000	0	0	1	1.00	0	12.66	1	1.10	0.90;
	25	1	0.4200	0.2000	0	0	1	1.00	0	12.66	1	1.10	0.90;
	26	1	0.0600	0.0250	0	0	1	1.00	0	12.66	1	1.10	0.90;
	27	1	0.0600	0.0250	0	0	1	1.00	0	12.66	1	1.10	0.90;
	28	1	0.114048830012618	0.0200	0	0	1	1.00	0	12.66	1	1.10	0.90;
    29	1	0.1200	0.0700	0	0	1	1.00	0	12.66	1	1.10	0.90;
	30	1	0.2000	0.6000	0	0	1	1.00	0	12.66	1	1.10	0.90;
    31	1	0.1500	0.0700	0	0	1	1.00	0	12.66	1	1.10	0.90; 
    32	1	0.108775793992032	0.1000	0	0	1	1.00	0	12.66	1	1.10	0.90;
    33	1	0.0600	0.0400	0	0	1	1.00	0	12.66	1	1.10	0.90;

];

%% generator data
%	bus	Pg	Qg	Qmax	Qmin	Vg	mBase	status	Pmax	Pmin	Pc1	Pc2	Qc1min	Qc1max	Qc2min	Qc2max	ramp_agc	ramp_10	ramp_30	ramp_q	apf
mpc.gen = [
	1	0	0	10	-10	1	100	1	10	0.00	0	0	0	0	0	0	0	0	0	0	0;
];

%% branch data
%	fbus	tbus	r	x	b	rateA	rateB	rateC	ratio	angle	status	angmin	angmax
mpc.branch = [
	1	2	0.0922*0.624	0.0477*0.624	0	0	0	0	0	0	1	-360	360;
	2	3	0.4930*0.624	0.2511*0.624	0	0	0	0	0	0	1	-360	360;
	3	4	0.3660*0.624	0.1840*0.624	0	0	0	0	0	0	1	-360	360;
	4	5	0.3811*0.624	0.1941*0.624	0	0	0	0	0	0	1	-360	360;
	5	6	0.8190*0.624	0.0700*0.624	0	0	0	0	0	0	1	-360	360;
	6	7	0.1872*0.624	0.6188*0.624	0	0	0	0	0	0	1	-360	360;
	7	8	1.7114*0.624	1.2351*0.624	0	0.8	0.8	0.8 0	0	1	-360	360;
	8	9	1.0300*0.624	0.7400*0.624	0	0.8	0.8	0.8 0   0	1	-360	360;
	9	10	1.0400*0.624	0.7400*0.624	0	0.8	0.8	0.8 0	0	1	-360	360;
	10	11	0.1966*0.624	0.0650*0.624	0	0.8	0.8	0.8	0	0	1	-360	360;
	11	12	0.3744*0.624	0.1238*0.624	0	0.8	0.8	0.8 0	0	1	-360	360;
	12	13	1.4680*0.624	1.1550*0.624	0	0.8	0.8	0.8	0	0	1	-360	360;
	13	14	0.5416*0.624	0.7129*0.624	0	0.8	0.8	0.8	0	0	1	-360	360;
	14	15	0.5910*0.624	0.5260*0.624	0	0.8	0.8	0.8	0	0	1	-360	360;
	15	16	0.7463*0.624	0.5450*0.624	0	0.8	0.8	0.8	0	0	1	-360	360;
	16	17	1.2890*0.624	1.7210*0.624	0	0.8	0.8	0.8	0	0	1	-360	360;
	17	18	0.7320*0.624	0.5740*0.624	0	0.8	0.8	0.8	0	0	1	-360	360;
	2	19	0.1640*0.624	0.1565*0.624	0	0	0	0	0	0	1	-360	360;
	19	20	1.5042*0.624	1.3554*0.624	0	0.8	0.8	0.8	0	0	1	-360	360;
	20	21	0.4095*0.624	0.4784*0.624	0	0.8	0.8	0.8	0	0	1	-360	360;
	21	22	0.7089*0.624	0.9373*0.624	0	0.8	0.8	0.8	0	0	1	-360	360;
	3	23	0.4512*0.624	0.3083*0.624	0	0	0	0	0	0	1	-360	360;
	23	24	0.8980*0.624	0.7091*0.624	0	0.8	0.8	0.8	0	0	1	-360	360;
	24	25	0.8960*0.624	0.7011*0.624	0	0.8	0.8	0.8	0	0	1	-360	360;
	6	26	0.2030*0.624	0.1034*0.624	0	0.8	0.8	0.8	0	0	1	-360	360;
	26	27	0.2842*0.624	0.1447*0.624	0	0.8	0.8	0.8	0	0	1	-360	360;
	27	28	1.0590*0.624	0.9337*0.624	0	0.8	0.8	0.8	0	0	1	-360	360;
	28	29	0.8042*0.624	0.7006*0.624	0	0.8	0.8	0.8	0	0	1	-360	360;
	29	30	0.5075*0.624	0.2585*0.624	0	0.8	0.8	0.8	0	0	1	-360	360;
	30	31	0.9744*0.624	0.9630*0.624	0	0.8	0.8	0.8	0	0	1	-360	360;
	31	32	0.3105*0.624	0.3619*0.624	0	0.8	0.8	0.8	0	0	1	-360	360;
	32	33	0.3410*0.624	0.5302*0.624	0	0.8	0.8	0.8	0	0	1	-360	360;
	21	8	2.0000*0.624	2.0000*0.624	0	0.8	0.8	0.8	0	0	1	-360	360;
	9	15	2.0000*0.624	2.0000*0.624	0	0.8	0.8	0.8	0	0	1	-360	360;
	12	22	2.0000*0.624	2.0000*0.624	0	0.8	0.8	0.8	0	0	1	-360	360;
	18	33	0.5000*0.624	0.5000*0.624	0	0.8	0.8	0.8	0	0	1	-360	360;
	25	29	0.5000*0.624	0.5000*0.624	0	0.8	0.8	0.8	0	0	1	-360	360;
];

mpc.gencost = [
	2	0	0	3	0	20	0;

];

